/*---------------------------------------------------------------------------*\
| =========                 |                                                 |
| \\      /  F ield         | OpenFOAM: The Open Source CFD Toolbox           |
|  \\    /   O peration     | Version:  2206                                  |
|   \\  /    A nd           | Website:  www.openfoam.com                      |
|    \\/     M anipulation  |                                                 |
\*---------------------------------------------------------------------------*/
Build  : _76d719d1-20220624 OPENFOAM=2206 version=2206
Arch   : "LSB;label=32;scalar=64"
Exec   : blockMesh
Date   : Jul 24 2022
Time   : 23:20:21
Host   : andre-XP1511
PID    : 479229
I/O    : uncollated
Case   : /home/andre/Development/ofml-drl/test_cases/rotatingCylinder2D
nProcs : 1
trapFpe: Floating point exception trapping enabled (FOAM_SIGFPE).
fileModificationChecking : Monitoring run-time modified files using timeStampMaster (fileModificationSkew 5, maxFileModificationPolls 20)
allowSystemOperations : Allowing user-supplied system call operations

// * * * * * * * * * * * * * * * * * * * * * * * * * * * * * * * * * * * * * //
Create time

Creating block mesh from "system/blockMeshDict"
Using #codeStream at line 31 in file "system/blockMeshDict"
Using #codeStream with "/home/andre/Development/ofml-drl/test_cases/rotatingCylinder2D/dynamicCode/platforms/linux64GccDPInt32Opt/lib/libcodeStream_3c9af58523de6577bf09eb301c557ce87c871808.so"
Could not load "/home/andre/Development/ofml-drl/test_cases/rotatingCylinder2D/dynamicCode/platforms/linux64GccDPInt32Opt/lib/libcodeStream_3c9af58523de6577bf09eb301c557ce87c871808.so"
/home/andre/Development/ofml-drl/test_cases/rotatingCylinder2D/dynamicCode/platforms/linux64GccDPInt32Opt/lib/libcodeStream_3c9af58523de6577bf09eb301c557ce87c871808.so: cannot open shared object file: No such file or directory
Creating new library in "dynamicCode/_3c9af58523de6577bf09eb301c557ce87c871808/platforms/linux64GccDPInt32Opt/lib/libcodeStream_3c9af58523de6577bf09eb301c557ce87c871808.so"
Invoking wmake libso /home/andre/Development/ofml-drl/test_cases/rotatingCylinder2D/dynamicCode/_3c9af58523de6577bf09eb301c557ce87c871808
wmake libso /home/andre/Development/ofml-drl/test_cases/rotatingCylinder2D/dynamicCode/_3c9af58523de6577bf09eb301c557ce87c871808
    ln: ./lnInclude
    dep: codeStreamTemplate.C
    Ctoo: codeStreamTemplate.C
    link: /home/andre/Development/ofml-drl/test_cases/rotatingCylinder2D/dynamicCode/_3c9af58523de6577bf09eb301c557ce87c871808/../platforms/linux64GccDPInt32Opt/lib/libcodeStream_3c9af58523de6577bf09eb301c557ce87c871808.so
Creating block edges
No non-planar block faces defined
Creating topology blocks

Creating topology patches - from boundary section

Creating block mesh topology

Check topology

	Basic statistics
		Number of internal faces : 5
		Number of boundary faces : 20
		Number of defined boundary faces : 20
		Number of undefined boundary faces : 0
	Checking patch -> block consistency

Creating block offsets
Creating merge list (topological search)...

Creating polyMesh from blockMesh
Creating patches
Creating cells
Creating points with scale (1 1 1)
    Block 0 cell size :
        i : 0.016 .. 0.016
        j : 0.017104607 .. 0.0042761517
        k : 0.01 .. 0.01

    Block 1 cell size :
        i : 0.0164 .. 0.0164
        j : 0.017104607 .. 0.0042761517
        k : 0.01 .. 0.01

    Block 2 cell size :
        i : 0.016 .. 0.016
        j : 0.0176317 .. 0.0044079251
        k : 0.01 .. 0.01

    Block 3 cell size :
        i : 0.0164 .. 0.0164
        j : 0.0176317 .. 0.0044079251
        k : 0.01 .. 0.01

    Block 4 cell size :
        i : 0.0073506633 .. 0.029402653
        j : 0.0164 .. 0.0164
        k : 0.01 .. 0.01


There are no merge patch pairs

Writing polyMesh with 0 cellZones
----------------
Mesh Information
----------------
  boundingBox: (0 0 0) (2.2 0.41 0.01)
  nPoints: 11076
  nCells: 5325
  nFaces: 21513
  nInternalFaces: 10437
----------------
Patches
----------------
  patch 0 (start: 10437 size: 138) name: top
  patch 1 (start: 10575 size: 138) name: bottom
  patch 2 (start: 10713 size: 25) name: inlet
  patch 3 (start: 10738 size: 25) name: outlet
  patch 4 (start: 10763 size: 5325) name: back
  patch 5 (start: 16088 size: 5325) name: front
  patch 6 (start: 21413 size: 100) name: cylinder

End

