/*---------------------------------------------------------------------------*\
| =========                 |                                                 |
| \\      /  F ield         | OpenFOAM: The Open Source CFD Toolbox           |
|  \\    /   O peration     | Version:  2206                                  |
|   \\  /    A nd           | Website:  www.openfoam.com                      |
|    \\/     M anipulation  |                                                 |
\*---------------------------------------------------------------------------*/
Build  : _76d719d1-20220624 OPENFOAM=2206 version=2206
Arch   : "LSB;label=32;scalar=64"
Exec   : setExprBoundaryFields
Date   : Jul 24 2022
Time   : 23:20:24
Host   : andre-XP1511
PID    : 479404
I/O    : uncollated
Case   : /home/andre/Development/ofml-drl/test_cases/rotatingCylinder2D
nProcs : 1
trapFpe: Floating point exception trapping enabled (FOAM_SIGFPE).
fileModificationChecking : Monitoring run-time modified files using timeStampMaster (fileModificationSkew 5, maxFileModificationPolls 20)
allowSystemOperations : Allowing user-supplied system call operations

// * * * * * * * * * * * * * * * * * * * * * * * * * * * * * * * * * * * * * //
Create time

Create mesh for time = 0


Time = 0
Processing field U
Set boundaryField/inlet/value
with expression
<<<<
 4*1.5*pos().y()*(0.41-pos().y())/(0.41*0.41)*vector(1,0,0) 
>>>>
Write "/home/andre/Development/ofml-drl/test_cases/rotatingCylinder2D/0/U"

End

